/*--------------------------------*- C++ -*----------------------------------*\
  =========                 |
  \\      /  F ield         | OpenFOAM: The Open Source CFD Toolbox
   \\    /   O peration     | Website:  https://openfoam.org
    \\  /    A nd           | Version:  13
     \\/     M anipulation  |
\*---------------------------------------------------------------------------*/
FoamFile
{
    format      ascii;
    class       polyBoundaryMesh;
    location    "constant/polyMesh";
    object      boundary;
}
// * * * * * * * * * * * * * * * * * * * * * * * * * * * * * * * * * * * * * //

4
(
    intPatch
    {
        type            patch;
        nFaces          0;
        startFace       873216;
    }
    wing
    {
        type            wall;
        physicalType    wall;
        inGroups        List<word> 1(wall);
        nFaces          4608;
        startFace       873216;
    }
    symm
    {
        type            symmetry;
        inGroups        List<word> 1(symmetry);
        nFaces          9216;
        startFace       877824;
    }
    farfield
    {
        type            patch;
        nFaces          9216;
        startFace       887040;
    }
)

// ************************************************************************* //
